<?xml version="1.0" encoding="UTF-8"?>

<!-- generated on Mon Jun  1 14:17:20 2026 by Eclipse SUMO netconvert Version 1.4.0
<configuration xmlns:xsi="http://www.w3.org/2001/XMLSchema-instance" xsi:noNamespaceSchemaLocation="http://sumo.dlr.de/xsd/netconvertConfiguration.xsd">

    <input>
        <osm-files value="/data/map.osm"/>
    </input>

    <output>
        <output-file value="/data/carla/zjf_pilot.net.xml"/>
        <opendrive-output value="/data/carla/zjf_pilot_raw.xodr"/>
    </output>

    <projection>
        <proj.utm value="true"/>
    </projection>

    <processing>
        <geometry.remove value="true"/>
        <roundabouts.guess value="true"/>
    </processing>

    <tls_building>
        <tls.discard-simple value="true"/>
        <tls.join value="true"/>
        <tls.guess-signals value="true"/>
    </tls_building>

    <ramp_guessing>
        <ramps.guess value="true"/>
    </ramp_guessing>

    <edge_removal>
        <keep-edges.by-vclass value="passenger,bus,truck,delivery"/>
    </edge_removal>

    <junctions>
        <no-internal-links value="false"/>
        <no-turnarounds value="true"/>
        <junctions.join value="true"/>
        <rectangular-lane-cut value="true"/>
    </junctions>

    <report>
        <aggregate-warnings value="5"/>
    </report>

</configuration>
-->

<net version="1.3" junctionCornerDetail="5" rectangularLaneCut="true" limitTurnSpeed="5.50" xmlns:xsi="http://www.w3.org/2001/XMLSchema-instance" xsi:noNamespaceSchemaLocation="http://sumo.dlr.de/xsd/net_file.xsd">

    <location netOffset="-316926.87,-3537057.91" convBoundary="0.00,0.00,2318.77,1362.46" origBoundary="121.062733,31.954855,121.087286,31.967216" projParameter="+proj=utm +zone=51 +ellps=WGS84 +datum=WGS84 +units=m +no_defs"/>

    <type id="highway.bridleway" priority="1" numLanes="1" speed="2.78" allow="pedestrian" oneway="1" width="2.00"/>
    <type id="highway.bus_guideway" priority="1" numLanes="1" speed="27.78" allow="bus" oneway="1"/>
    <type id="highway.cycleway" priority="1" numLanes="1" speed="8.33" allow="bicycle" oneway="0" width="1.00"/>
    <type id="highway.footway" priority="1" numLanes="1" speed="2.78" allow="pedestrian" oneway="1" width="2.00"/>
    <type id="highway.ford" priority="1" numLanes="1" speed="2.78" allow="army" oneway="0"/>
    <type id="highway.living_street" priority="2" numLanes="1" speed="2.78" disallow="tram rail_urban rail rail_electric rail_fast ship" oneway="0"/>
    <type id="highway.motorway" priority="14" numLanes="2" speed="39.44" allow="private emergency authority army vip passenger hov taxi bus coach delivery truck trailer motorcycle evehicle custom1 custom2" oneway="1"/>
    <type id="highway.motorway_link" priority="9" numLanes="1" speed="22.22" allow="private emergency authority army vip passenger hov taxi bus coach delivery truck trailer motorcycle evehicle custom1 custom2" oneway="1"/>
    <type id="highway.path" priority="1" numLanes="1" speed="2.78" allow="pedestrian bicycle" oneway="1" width="2.00"/>
    <type id="highway.pedestrian" priority="1" numLanes="1" speed="2.78" allow="pedestrian" oneway="1" width="2.00"/>
    <type id="highway.primary" priority="12" numLanes="2" speed="27.78" disallow="tram rail_urban rail rail_electric rail_fast ship" oneway="0"/>
    <type id="highway.primary_link" priority="7" numLanes="1" speed="22.22" disallow="tram rail_urban rail rail_electric rail_fast ship" oneway="0"/>
    <type id="highway.raceway" priority="15" numLanes="2" speed="83.33" allow="vip" oneway="0"/>
    <type id="highway.residential" priority="3" numLanes="1" speed="13.89" disallow="tram rail_urban rail rail_electric rail_fast ship" oneway="0"/>
    <type id="highway.secondary" priority="11" numLanes="1" speed="27.78" disallow="tram rail_urban rail rail_electric rail_fast ship" oneway="0"/>
    <type id="highway.secondary_link" priority="6" numLanes="1" speed="22.22" disallow="tram rail_urban rail rail_electric rail_fast ship" oneway="0"/>
    <type id="highway.service" priority="1" numLanes="1" speed="5.56" allow="pedestrian delivery bicycle" oneway="0"/>
    <type id="highway.stairs" priority="1" numLanes="1" speed="1.39" allow="pedestrian" oneway="1" width="2.00"/>
    <type id="highway.step" priority="1" numLanes="1" speed="1.39" allow="pedestrian" oneway="1" width="2.00"/>
    <type id="highway.steps" priority="1" numLanes="1" speed="1.39" allow="pedestrian" oneway="1" width="2.00"/>
    <type id="highway.tertiary" priority="10" numLanes="1" speed="22.22" disallow="tram rail_urban rail rail_electric rail_fast ship" oneway="0"/>
    <type id="highway.tertiary_link" priority="5" numLanes="1" speed="22.22" disallow="tram rail_urban rail rail_electric rail_fast ship" oneway="0"/>
    <type id="highway.track" priority="1" numLanes="1" speed="5.56" disallow="tram rail_urban rail rail_electric rail_fast ship" oneway="0"/>
    <type id="highway.trunk" priority="13" numLanes="2" speed="27.78" disallow="pedestrian bicycle tram rail_urban rail rail_electric rail_fast ship" oneway="0"/>
    <type id="highway.trunk_link" priority="8" numLanes="1" speed="22.22" disallow="pedestrian bicycle tram rail_urban rail rail_electric rail_fast ship" oneway="0"/>
    <type id="highway.unclassified" priority="4" numLanes="1" speed="13.89" disallow="tram rail_urban rail rail_electric rail_fast ship" oneway="0"/>
    <type id="highway.unsurfaced" priority="1" numLanes="1" speed="8.33" disallow="tram rail_urban rail rail_electric rail_fast ship" oneway="0"/>
    <type id="railway.highspeed" priority="21" numLanes="1" speed="69.44" allow="rail_fast" oneway="1"/>
    <type id="railway.light_rail" priority="19" numLanes="1" speed="27.78" allow="rail_urban" oneway="1"/>
    <type id="railway.preserved" priority="16" numLanes="1" speed="27.78" allow="rail" oneway="1"/>
    <type id="railway.rail" priority="20" numLanes="1" speed="44.44" allow="rail" oneway="1"/>
    <type id="railway.subway" priority="18" numLanes="1" speed="27.78" allow="rail_urban" oneway="1"/>
    <type id="railway.tram" priority="17" numLanes="1" speed="13.89" allow="tram" oneway="1"/>

    <edge id=":11134189309_0" function="internal">
        <lane id=":11134189309_0_0" index="0" disallow="tram rail_urban rail rail_electric rail_fast ship" speed="5.07" length="5.04" shape="1182.89,1120.58 1181.50,1120.61 1180.45,1121.07 1179.74,1121.96 1179.38,1123.27"/>
    </edge>
    <edge id=":11134189309_1" function="internal">
        <lane id=":11134189309_1_0" index="0" disallow="tram rail_urban rail rail_electric rail_fast ship" speed="6.85" length="10.21" shape="1182.89,1120.58 1180.18,1119.86 1178.36,1118.45 1177.43,1116.35 1177.38,1113.54"/>
    </edge>
    <edge id=":11134189309_2" function="internal">
        <lane id=":11134189309_2_0" index="0" allow="pedestrian delivery bicycle" speed="5.03" length="5.01" shape="1180.56,1113.95 1180.58,1115.32 1181.04,1116.35 1181.93,1117.05 1183.26,1117.40"/>
    </edge>
    <edge id=":11134189309_3" function="internal">
        <lane id=":11134189309_3_0" index="0" disallow="tram rail_urban rail rail_electric rail_fast ship" speed="22.22" length="9.40" shape="1180.56,1113.95 1179.38,1123.27"/>
    </edge>
    <edge id=":11134189309_4" function="internal">
        <lane id=":11134189309_4_0" index="0" disallow="tram rail_urban rail rail_electric rail_fast ship" speed="22.22" length="9.40" shape="1176.20,1122.87 1177.38,1113.54"/>
    </edge>
    <edge id=":11134189309_5" function="internal">
        <lane id=":11134189309_5_0" index="0" allow="pedestrian delivery bicycle" speed="6.89" length="5.06" shape="1176.20,1122.87 1176.94,1120.20 1178.36,1118.40"/>
    </edge>
    <edge id=":11134189309_6" function="internal">
        <lane id=":11134189309_6_0" index="0" allow="pedestrian delivery bicycle" speed="6.89" length="5.10" shape="1178.36,1118.40 1180.47,1117.47 1183.26,1117.40"/>
    </edge>
    <edge id=":11134189310_0" function="internal">
        <lane id=":11134189310_0_0" index="0" allow="pedestrian delivery bicycle" speed="5.56" length="19.15" shape="1227.50,1128.05 1223.26,1126.87 1218.26,1125.53 1213.22,1124.34 1208.90,1123.59"/>
    </edge>
    <edge id=":11134189310_1" function="internal">
        <lane id=":11134189310_1_0" index="0" allow="pedestrian delivery bicycle" speed="5.56" length="20.02" shape="1227.50,1128.05 1220.80,1125.71 1216.11,1123.02 1213.44,1119.98 1212.78,1116.58"/>
    </edge>
    <edge id=":11134189310_2" function="internal">
        <lane id=":11134189310_2_0" index="0" allow="pedestrian delivery bicycle" speed="5.56" length="13.71" shape="1227.50,1128.05 1224.53,1126.01 1223.62,1122.90 1224.75,1119.85 1227.86,1118.02"/>
    </edge>
    <edge id=":11134189310_3" function="internal">
        <lane id=":11134189310_3_0" index="0" allow="pedestrian delivery bicycle" speed="4.98" length="8.93" shape="1228.50,1121.16 1225.53,1122.01 1224.51,1122.93 1225.46,1123.92 1228.37,1124.97"/>
    </edge>
    <edge id=":11134189310_4" function="internal">
        <lane id=":11134189310_4_0" index="0" allow="pedestrian delivery bicycle" speed="5.56" length="19.81" shape="1228.50,1121.16 1224.07,1122.04 1218.73,1122.97 1213.37,1123.59 1208.90,1123.59"/>
    </edge>
    <edge id=":11134189310_5" function="internal">
        <lane id=":11134189310_5_0" index="0" allow="pedestrian delivery bicycle" speed="5.56" length="19.01" shape="1228.50,1121.16 1221.34,1122.14 1216.32,1121.71 1213.47,1119.86 1212.78,1116.58"/>
    </edge>
    <edge id=":11134189310_6" function="internal">
        <lane id=":11134189310_6_0" index="0" allow="pedestrian delivery bicycle" speed="5.56" length="13.02" shape="1215.97,1116.89 1216.58,1118.33 1218.76,1119.00 1222.52,1118.90 1227.86,1118.02"/>
    </edge>
    <edge id=":11134189310_7" function="internal">
        <lane id=":11134189310_7_0" index="0" allow="pedestrian delivery bicycle" speed="5.56" length="15.63" shape="1215.97,1116.89 1216.58,1119.08 1218.85,1121.15 1222.78,1123.12 1228.37,1124.97"/>
    </edge>
    <edge id=":11134189310_8" function="internal">
        <lane id=":11134189310_8_0" index="0" allow="pedestrian delivery bicycle" speed="5.56" length="11.13" shape="1215.97,1116.89 1215.25,1120.10 1213.84,1122.28 1211.72,1123.45 1208.90,1123.59"/>
    </edge>
    <edge id=":11134189310_9" function="internal">
        <lane id=":11134189310_9_0" index="0" allow="pedestrian delivery bicycle" speed="5.38" length="5.91" shape="1209.26,1120.41 1210.65,1120.31 1211.70,1119.63 1212.41,1118.39 1212.78,1116.58"/>
    </edge>
    <edge id=":11134189310_10" function="internal">
        <lane id=":11134189310_10_0" index="0" allow="pedestrian delivery bicycle" speed="5.56" length="18.80" shape="1209.26,1120.41 1213.58,1120.42 1218.59,1119.81 1223.59,1118.90 1227.86,1118.02"/>
    </edge>
    <edge id=":11134189310_11" function="internal">
        <lane id=":11134189310_11_0" index="0" allow="pedestrian delivery bicycle" speed="5.56" length="19.66" shape="1209.26,1120.41 1213.67,1121.18 1218.87,1122.40 1224.05,1123.77 1228.37,1124.97"/>
    </edge>
    <edge id=":12556774625_0" function="internal">
        <lane id=":12556774625_0_0" index="0" allow="pedestrian delivery bicycle" speed="5.56" length="9.51" shape="1316.73,1095.87 1307.54,1098.34"/>
    </edge>
    <edge id=":12556774625_1" function="internal">
        <lane id=":12556774625_1_0" index="0" allow="pedestrian delivery bicycle" speed="5.56" length="11.14" shape="1316.73,1095.87 1313.61,1096.24 1311.30,1095.47 1309.81,1093.55 1309.13,1090.49"/>
    </edge>
    <edge id=":12556774625_2" function="internal">
        <lane id=":12556774625_2_0" index="0" allow="pedestrian delivery bicycle" speed="4.86" length="5.24" shape="1312.32,1090.25 1312.64,1091.69 1313.34,1092.59 1314.43,1092.95 1315.89,1092.78"/>
    </edge>
    <edge id=":12556774625_3" function="internal">
        <lane id=":12556774625_3_0" index="0" allow="pedestrian delivery bicycle" speed="5.56" length="10.31" shape="1312.32,1090.25 1312.21,1093.25 1311.38,1095.61 1309.82,1097.30 1307.54,1098.34"/>
    </edge>
    <edge id=":12556774625_4" function="internal">
        <lane id=":12556774625_4_0" index="0" allow="pedestrian delivery bicycle" speed="5.56" length="5.84" shape="1306.71,1095.25 1307.88,1094.68 1308.68,1093.70 1309.09,1092.30 1309.13,1090.49"/>
    </edge>
    <edge id=":12556774625_5" function="internal">
        <lane id=":12556774625_5_0" index="0" allow="pedestrian delivery bicycle" speed="5.56" length="9.51" shape="1306.71,1095.25 1315.89,1092.78"/>
    </edge>
    <edge id=":1997306686_0" function="internal">
        <lane id=":1997306686_0_0" index="0" disallow="tram rail_urban rail rail_electric rail_fast ship" speed="27.78" length="9.34" shape="495.90,981.05 486.56,980.90"/>
    </edge>
    <edge id=":1997306686_1" function="internal">
        <lane id=":1997306686_1_0" index="0" allow="pedestrian delivery bicycle" speed="6.90" length="5.04" shape="495.90,981.05 493.18,980.60 491.25,979.37"/>
    </edge>
    <edge id=":1997306686_6" function="internal">
        <lane id=":1997306686_6_0" index="0" allow="pedestrian delivery bicycle" speed="6.90" length="5.09" shape="491.25,979.37 490.09,977.38 489.72,974.62"/>
    </edge>
    <edge id=":1997306686_2" function="internal">
        <lane id=":1997306686_2_0" index="0" disallow="tram rail_urban rail rail_electric rail_fast ship" speed="5.08" length="5.04" shape="492.92,974.64 493.10,976.02 493.67,977.02 494.63,977.63 495.97,977.85"/>
    </edge>
    <edge id=":1997306686_3" function="internal">
        <lane id=":1997306686_3_0" index="0" disallow="tram rail_urban rail rail_electric rail_fast ship" speed="6.86" length="10.19" shape="492.92,974.64 492.51,977.40 491.31,979.37 489.33,980.53 486.56,980.90"/>
    </edge>
    <edge id=":1997306686_4" function="internal">
        <lane id=":1997306686_4_0" index="0" allow="pedestrian delivery bicycle" speed="5.03" length="5.01" shape="486.59,977.70 487.95,977.52 488.93,976.95 489.52,975.98 489.72,974.62"/>
    </edge>
    <edge id=":1997306686_5" function="internal">
        <lane id=":1997306686_5_0" index="0" disallow="tram rail_urban rail rail_electric rail_fast ship" speed="27.78" length="9.38" shape="486.59,977.70 495.97,977.85"/>
    </edge>
    <edge id=":1997306691_0" function="internal">
        <lane id=":1997306691_0_0" index="0" disallow="tram rail_urban rail rail_electric rail_fast ship" speed="6.59" length="9.17" shape="855.73,993.34 855.38,990.82 854.33,989.01 852.58,987.91 850.14,987.52"/>
    </edge>
    <edge id=":1997306691_1" function="internal">
        <lane id=":1997306691_1_0" index="0" disallow="tram rail_urban rail rail_electric rail_fast ship" speed="7.94" length="14.34" shape="855.73,993.34 856.28,989.43 857.96,986.68 860.76,985.10 864.69,984.67"/>
    </edge>
    <edge id=":1997306691_2" function="internal">
        <lane id=":1997306691_2_0" index="0" disallow="tram rail_urban rail rail_electric rail_fast ship" speed="6.43" length="9.03" shape="864.58,987.87 862.10,988.14 860.33,989.14 859.28,990.87 858.93,993.33"/>
    </edge>
    <edge id=":1997306691_3" function="internal">
        <lane id=":1997306691_3_0" index="0" disallow="tram rail_urban rail rail_electric rail_fast ship" speed="27.78" length="14.44" shape="864.58,987.87 850.14,987.52"/>
    </edge>
    <edge id=":1997306691_4" function="internal">
        <lane id=":1997306691_4_0" index="0" disallow="tram rail_urban rail rail_electric rail_fast ship" speed="27.78" length="14.50" shape="850.19,984.32 864.69,984.67"/>
    </edge>
    <edge id=":1997306691_5" function="internal">
        <lane id=":1997306691_5_0" index="0" disallow="tram rail_urban rail rail_electric rail_fast ship" speed="8.07" length="6.00" shape="850.19,984.32 854.01,984.92 855.81,986.06"/>
    </edge>
    <edge id=":1997306691_6" function="internal">
        <lane id=":1997306691_6_0" index="0" disallow="tram rail_urban rail rail_electric rail_fast ship" speed="8.07" length="8.27" shape="855.81,986.06 856.74,986.63 858.38,989.43 858.93,993.33"/>
    </edge>
    <edge id=":1999062301_0" function="internal">
        <lane id=":1999062301_0_0" index="0" disallow="tram rail_urban rail rail_electric rail_fast ship" speed="27.78" length="14.69" shape="1158.76,833.67 1144.08,833.90"/>
    </edge>
    <edge id=":1999062301_1" function="internal">
        <lane id=":1999062301_1_0" index="0" disallow="tram rail_urban rail rail_electric rail_fast ship" speed="7.91" length="6.46" shape="1158.76,833.67 1154.55,833.08 1152.68,831.91"/>
    </edge>
    <edge id=":1999062301_6" function="internal">
        <lane id=":1999062301_6_0" index="0" disallow="tram rail_urban rail rail_electric rail_fast ship" speed="7.91" length="8.67" shape="1152.68,831.91 1151.70,831.29 1150.22,828.31 1150.10,824.13"/>
    </edge>
    <edge id=":1999062301_2" function="internal">
        <lane id=":1999062301_2_0" index="0" disallow="tram rail_urban rail rail_electric rail_fast ship" speed="6.16" length="9.05" shape="1153.28,824.51 1153.34,827.05 1154.23,828.82 1155.94,829.82 1158.47,830.04"/>
    </edge>
    <edge id=":1999062301_3" function="internal">
        <lane id=":1999062301_3_0" index="0" disallow="tram rail_urban rail rail_electric rail_fast ship" speed="8.57" length="14.53" shape="1153.28,824.51 1152.30,828.52 1150.44,831.42 1147.70,833.21 1144.08,833.90"/>
    </edge>
    <edge id=":1999062301_4" function="internal">
        <lane id=":1999062301_4_0" index="0" disallow="tram rail_urban rail rail_electric rail_fast ship" speed="7.18" length="9.93" shape="1143.97,830.70 1146.37,830.22 1148.19,828.97 1149.44,826.94 1150.10,824.13"/>
    </edge>
    <edge id=":1999062301_5" function="internal">
        <lane id=":1999062301_5_0" index="0" disallow="tram rail_urban rail rail_electric rail_fast ship" speed="27.78" length="14.51" shape="1143.97,830.70 1158.47,830.04"/>
    </edge>
    <edge id=":1999062395_0" function="internal">
        <lane id=":1999062395_0_0" index="0" disallow="tram rail_urban rail rail_electric rail_fast ship" speed="6.64" length="9.24" shape="660.85,990.55 660.48,988.04 659.41,986.24 657.64,985.13 655.16,984.71"/>
    </edge>
    <edge id=":1999062395_1" function="internal">
        <lane id=":1999062395_1_0" index="0" disallow="tram rail_urban rail rail_electric rail_fast ship" speed="13.89" length="14.52" shape="660.85,990.55 660.93,976.03"/>
    </edge>
    <edge id=":1999062395_2" function="internal">
        <lane id=":1999062395_2_0" index="0" disallow="tram rail_urban rail rail_electric rail_fast ship" speed="7.97" length="14.26" shape="660.85,990.55 661.39,986.67 663.04,983.91 665.81,982.28 669.70,981.78"/>
    </edge>
    <edge id=":1999062395_3" function="internal">
        <lane id=":1999062395_3_0" index="0" disallow="tram rail_urban rail rail_electric rail_fast ship" speed="6.47" length="9.03" shape="669.65,984.98 667.19,985.30 665.44,986.33 664.39,988.08 664.05,990.53"/>
    </edge>
    <edge id=":1999062395_4" function="internal">
        <lane id=":1999062395_4_0" index="0" disallow="tram rail_urban rail rail_electric rail_fast ship" speed="27.78" length="14.50" shape="669.65,984.98 655.16,984.71"/>
    </edge>
    <edge id=":1999062395_5" function="internal">
        <lane id=":1999062395_5_0" index="0" disallow="tram rail_urban rail rail_electric rail_fast ship" speed="8.01" length="6.01" shape="669.65,984.98 665.78,984.38 664.00,983.28"/>
    </edge>
    <edge id=":1999062395_12" function="internal">
        <lane id=":1999062395_12_0" index="0" disallow="tram rail_urban rail rail_electric rail_fast ship" speed="8.01" length="8.25" shape="664.00,983.28 663.04,982.68 661.42,979.90 660.93,976.03"/>
    </edge>
    <edge id=":1999062395_6" function="internal">
        <lane id=":1999062395_6_0" index="0" disallow="tram rail_urban rail rail_electric rail_fast ship" speed="6.52" length="9.09" shape="664.13,976.09 664.45,978.55 665.48,980.32 667.23,981.40 669.70,981.78"/>
    </edge>
    <edge id=":1999062395_7" function="internal">
        <lane id=":1999062395_7_0" index="0" disallow="tram rail_urban rail rail_electric rail_fast ship" speed="13.89" length="14.45" shape="664.13,976.09 664.05,990.53"/>
    </edge>
    <edge id=":1999062395_8" function="internal">
        <lane id=":1999062395_8_0" index="0" disallow="tram rail_urban rail rail_electric rail_fast ship" speed="7.99" length="14.22" shape="664.13,976.09 663.52,979.94 661.82,982.66 659.03,984.25 655.16,984.71"/>
    </edge>
    <edge id=":1999062395_9" function="internal">
        <lane id=":1999062395_9_0" index="0" disallow="tram rail_urban rail rail_electric rail_fast ship" speed="6.49" length="9.03" shape="655.23,981.51 657.69,981.22 659.46,980.21 660.54,978.48 660.93,976.03"/>
    </edge>
    <edge id=":1999062395_10" function="internal">
        <lane id=":1999062395_10_0" index="0" disallow="tram rail_urban rail rail_electric rail_fast ship" speed="27.78" length="14.47" shape="655.23,981.51 669.70,981.78"/>
    </edge>
    <edge id=":1999062395_11" function="internal">
        <lane id=":1999062395_11_0" index="0" disallow="tram rail_urban rail rail_electric rail_fast ship" speed="8.11" length="5.90" shape="655.23,981.51 659.07,982.15 660.78,983.22"/>
    </edge>
    <edge id=":1999062395_13" function="internal">
        <lane id=":1999062395_13_0" index="0" disallow="tram rail_urban rail rail_electric rail_fast ship" speed="8.11" length="8.39" shape="660.78,983.22 661.82,983.87 663.48,986.66 664.05,990.53"/>
    </edge>
    <edge id=":1999062469_0" function="internal">
        <lane id=":1999062469_0_0" index="0" allow="pedestrian delivery bicycle" speed="5.18" length="5.16" shape="1816.14,1133.06 1814.77,1133.21 1813.75,1133.78 1813.09,1134.76 1812.79,1136.16"/>
    </edge>
    <edge id=":1999062469_1" function="internal">
        <lane id=":1999062469_1_0" index="0" allow="pedestrian delivery bicycle" speed="5.56" length="21.32" shape="1816.14,1133.06 1794.85,1131.92"/>
    </edge>
    <edge id=":1999062469_2" function="internal">
        <lane id=":1999062469_2_0" index="0" allow="pedestrian delivery bicycle" speed="5.56" length="21.84" shape="1816.14,1133.06 1811.50,1132.06 1805.82,1129.86 1800.25,1127.26 1795.92,1125.08"/>
    </edge>
    <edge id=":1999062469_3" function="internal">
        <lane id=":1999062469_3_0" index="0" allow="pedestrian delivery bicycle" speed="5.56" length="11.74" shape="1816.14,1133.06 1813.43,1132.45 1811.51,1130.85 1810.39,1128.24 1810.05,1124.63"/>
    </edge>
    <edge id=":1999062469_4" function="internal">
        <lane id=":1999062469_4_0" index="0" allow="pedestrian delivery bicycle" speed="5.56" length="6.68" shape="1813.25,1124.68 1813.41,1126.91 1813.96,1128.51 1814.91,1129.50 1816.25,1129.86"/>
    </edge>
    <edge id=":1999062469_5" function="internal">
        <lane id=":1999062469_5_0" index="0" allow="pedestrian delivery bicycle" speed="5.56" length="11.48" shape="1813.25,1124.68 1812.79,1136.16"/>
    </edge>
    <edge id=":1999062469_6" function="internal">
        <lane id=":1999062469_6_0" index="0" allow="pedestrian delivery bicycle" speed="5.56" length="21.69" shape="1813.25,1124.68 1812.06,1128.10 1808.59,1130.45 1802.85,1131.72 1794.85,1131.92"/>
    </edge>
    <edge id=":1999062469_7" function="internal">
        <lane id=":1999062469_7_0" index="0" allow="pedestrian delivery bicycle" speed="5.56" length="20.87" shape="1813.25,1124.68 1812.12,1128.17 1808.85,1129.39 1803.45,1128.36 1795.92,1125.08"/>
    </edge>
    <edge id=":1999062469_8" function="internal">
        <lane id=":1999062469_8_0" index="0" allow="pedestrian delivery bicycle" speed="5.56" length="14.23" shape="1797.38,1122.23 1802.90,1124.81 1806.85,1126.07 1809.24,1126.01 1810.05,1124.63"/>
    </edge>
    <edge id=":1999062469_9" function="internal">
        <lane id=":1999062469_9_0" index="0" allow="pedestrian delivery bicycle" speed="5.56" length="20.45" shape="1797.38,1122.23 1801.50,1124.36 1806.61,1126.84 1811.82,1128.92 1816.25,1129.86"/>
    </edge>
    <edge id=":1999062469_10" function="internal">
        <lane id=":1999062469_10_0" index="0" allow="pedestrian delivery bicycle" speed="5.56" length="21.54" shape="1797.38,1122.23 1804.29,1126.15 1809.16,1129.78 1811.99,1133.12 1812.79,1136.16"/>
    </edge>
    <edge id=":1999062469_11" function="internal">
        <lane id=":1999062469_11_0" index="0" allow="pedestrian delivery bicycle" speed="5.56" length="13.74" shape="1797.38,1122.23 1799.86,1124.85 1800.06,1128.11 1798.29,1130.85 1794.85,1131.92"/>
    </edge>
    <edge id=":1999062469_12" function="internal">
        <lane id=":1999062469_12_0" index="0" allow="pedestrian delivery bicycle" speed="5.07" length="9.46" shape="1794.97,1128.72 1798.28,1128.62 1799.54,1127.97 1798.76,1126.79 1795.92,1125.08"/>
    </edge>
    <edge id=":1999062469_13" function="internal">
        <lane id=":1999062469_13_0" index="0" allow="pedestrian delivery bicycle" speed="5.56" length="16.69" shape="1794.97,1128.72 1801.54,1128.67 1806.25,1127.98 1809.08,1126.63 1810.05,1124.63"/>
    </edge>
    <edge id=":1999062469_14" function="internal">
        <lane id=":1999062469_14_0" index="0" allow="pedestrian delivery bicycle" speed="5.56" length="21.31" shape="1794.97,1128.72 1816.25,1129.86"/>
    </edge>
    <edge id=":1999062469_15" function="internal">
        <lane id=":1999062469_15_0" index="0" allow="pedestrian delivery bicycle" speed="5.56" length="20.96" shape="1794.97,1128.72 1802.95,1129.44 1808.59,1130.92 1811.87,1133.16 1812.79,1136.16"/>
    </edge>
    <edge id=":1999062469_16" function="internal">
        <lane id=":1999062469_16_0" index="0" allow="pedestrian delivery bicycle" speed="5.56" length="16.01" shape="1809.60,1135.92 1808.78,1134.38 1806.04,1133.20 1801.40,1132.38 1794.85,1131.92"/>
    </edge>
    <edge id=":1999062469_17" function="internal">
        <lane id=":1999062469_17_0" index="0" allow="pedestrian delivery bicycle" speed="5.56" length="17.91" shape="1809.60,1135.92 1808.85,1133.86 1806.32,1131.37 1802.01,1128.44 1795.92,1125.08"/>
    </edge>
    <edge id=":1999062469_18" function="internal">
        <lane id=":1999062469_18_0" index="0" allow="pedestrian delivery bicycle" speed="5.56" length="11.30" shape="1809.60,1135.92 1810.05,1124.63"/>
    </edge>
    <edge id=":1999062469_19" function="internal">
        <lane id=":1999062469_19_0" index="0" allow="pedestrian delivery bicycle" speed="5.56" length="10.16" shape="1809.60,1135.92 1810.19,1133.19 1811.50,1131.27 1813.52,1130.16 1816.25,1129.86"/>
    </edge>
    <edge id=":1999062471_0" function="internal">
        <lane id=":1999062471_0_0" index="0" disallow="tram rail_urban rail rail_electric rail_fast ship" speed="22.22" length="9.46" shape="1850.72,1128.07 1850.47,1137.53"/>
    </edge>
    <edge id=":1999062471_1" function="internal">
        <lane id=":1999062471_1_0" index="0" allow="pedestrian delivery bicycle" speed="6.84" length="5.14" shape="1850.72,1128.07 1850.27,1130.85 1849.02,1132.80"/>
    </edge>
    <edge id=":1999062471_6" function="internal">
        <lane id=":1999062471_6_0" index="0" allow="pedestrian delivery bicycle" speed="6.84" length="5.14" shape="1849.02,1132.80 1847.00,1133.92 1844.19,1134.20"/>
    </edge>
    <edge id=":1999062471_2" function="internal">
        <lane id=":1999062471_2_0" index="0" disallow="tram rail_urban rail rail_electric rail_fast ship" speed="5.02" length="5.03" shape="1844.33,1131.00 1845.70,1130.87 1846.69,1130.32 1847.30,1129.37 1847.52,1128.00"/>
    </edge>
    <edge id=":1999062471_3" function="internal">
        <lane id=":1999062471_3_0" index="0" disallow="tram rail_urban rail rail_electric rail_fast ship" speed="6.90" length="10.20" shape="1844.33,1131.00 1847.09,1131.51 1849.04,1132.77 1850.16,1134.77 1850.47,1137.53"/>
    </edge>
    <edge id=":1999062471_4" function="internal">
        <lane id=":1999062471_4_0" index="0" allow="pedestrian delivery bicycle" speed="5.08" length="5.07" shape="1847.27,1137.42 1847.12,1136.06 1846.55,1135.07 1845.58,1134.45 1844.19,1134.20"/>
    </edge>
    <edge id=":1999062471_5" function="internal">
        <lane id=":1999062471_5_0" index="0" disallow="tram rail_urban rail rail_electric rail_fast ship" speed="22.22" length="9.42" shape="1847.27,1137.42 1847.52,1128.00"/>
    </edge>
    <edge id=":cluster_12083064877_1999062356_0" function="internal">
        <lane id=":cluster_12083064877_1999062356_0_0" index="0" disallow="tram rail_urban rail rail_electric rail_fast ship" speed="7.13" length="9.80" shape="1223.62,833.54 1221.21,833.95 1219.37,835.13 1218.08,837.09 1217.37,839.83"/>
    </edge>
    <edge id=":cluster_12083064877_1999062356_1" function="internal">
        <lane id=":cluster_12083064877_1999062356_1_0" index="0" disallow="tram rail_urban rail rail_electric rail_fast ship" speed="27.78" length="14.94" shape="1223.62,833.54 1208.67,833.61"/>
    </edge>
    <edge id=":cluster_12083064877_1999062356_2" function="internal">
        <lane id=":cluster_12083064877_1999062356_2_0" index="0" disallow="tram rail_urban rail rail_electric rail_fast ship" speed="8.88" length="9.78" shape="1223.62,833.54 1220.35,832.37 1217.32,829.36 1216.29,827.60"/>
    </edge>
    <edge id=":cluster_12083064877_1999062356_12" function="internal">
        <lane id=":cluster_12083064877_1999062356_12_0" index="0" disallow="tram rail_urban rail rail_electric rail_fast ship" speed="8.88" length="6.84" shape="1216.29,827.60 1215.00,825.38 1213.89,821.26"/>
    </edge>
    <edge id=":cluster_12083064877_1999062356_3" function="internal">
        <lane id=":cluster_12083064877_1999062356_3_0" index="0" disallow="tram rail_urban rail rail_electric rail_fast ship" speed="6.91" length="9.69" shape="1217.08,820.97 1217.68,823.51 1218.95,825.31 1220.90,826.38 1223.53,826.71"/>
    </edge>
    <edge id=":cluster_12083064877_1999062356_4" function="internal">